dd new line

new line...add new lines

another new line
